*SPEF "IEEE 1481-1998"
*DESIGN "gr13_fir"
*DATE "Tue Nov 10 12:45:28 2020"
*VENDOR "Cadence Design Systems, Inc."
*PROGRAM "Innovus"
*VERSION "17.11-s080_1"
*DESIGN_FLOW "COUPLING C" "PIN_CAP NONE" "NAME_SCOPE LOCAL"
*DIVIDER /
*DELIMITER :
*BUS_DELIMITER []
*T_UNIT 1 NS
*C_UNIT 1 PF
*R_UNIT 1 OHM
*L_UNIT 1 HENRY

// MMMC spef file for corner 'my_rc'

*NAME_MAP

*1 b[0]
*2 b[1]
*3 b[2]
*4 b[3]
*5 b[4]
*6 b[5]
*7 b[6]
*8 b[7]
*9 b[8]
*10 b[9]
*11 b[10]
*12 b[11]
*13 b[12]
*14 b[13]
*15 b[14]
*16 b[15]
*17 b[16]
*18 b[17]
*19 b[18]
*20 b[19]
*21 b[20]
*22 b[21]
*23 b[22]
*24 b[23]
*25 b[24]
*26 b[25]
*27 b[26]
*28 b[27]
*29 b[28]
*30 b[29]
*31 b[30]
*32 b[31]
*33 b[32]
*34 b[33]
*35 b[34]
*36 b[35]
*37 b[36]
*38 b[37]
*39 b[38]
*40 b[39]
*41 b[40]
*42 b[41]
*43 b[42]
*44 b[43]
*45 b[44]
*46 b[45]
*47 b[46]
*48 b[47]
*49 b[48]
*50 b[49]
*51 b[50]
*52 b[51]
*53 b[52]
*54 b[53]
*55 b[54]
*56 b[55]
*57 b[56]
*58 b[57]
*59 b[58]
*60 b[59]
*61 b[60]
*62 b[61]
*63 b[62]
*64 b[63]
*65 b[64]
*66 b[65]
*67 b[66]
*68 b[67]
*69 b[68]
*70 b[69]
*71 b[70]
*72 b[71]
*73 b[72]
*74 b[73]
*75 b[74]
*76 b[75]
*77 b[76]
*78 b[77]
*79 b[78]
*80 b[79]
*81 b[80]
*82 b[81]
*83 b[82]
*84 b[83]
*85 b[84]
*86 b[85]
*87 b[86]
*88 b[87]
*89 b[88]
*90 b[89]
*91 b[90]
*92 b[91]
*93 b[92]
*94 b[93]
*95 b[94]
*96 b[95]
*97 b[96]
*98 b[97]
*99 b[98]
*100 b[99]
*101 b[100]
*102 b[101]
*103 b[102]
*104 b[103]
*105 b[104]
*106 b[105]
*107 b[106]
*108 b[107]
*109 b[108]
*110 b[109]
*111 b[110]
*112 b[111]
*113 b[112]
*114 b[113]
*115 b[114]
*116 b[115]
*117 b[116]
*118 b[117]
*119 b[118]
*120 b[119]
*121 b[120]
*122 DIN[10]
*123 DIN[9]
*124 DIN[8]
*125 DIN[7]
*126 DIN[6]
*127 DIN[5]
*128 DIN[4]
*129 DIN[3]
*130 DIN[2]
*131 DIN[1]
*132 DIN[0]
*133 VIN
*134 RST_n
*135 CLK
*136 DOUT[10]
*137 DOUT[9]
*138 DOUT[8]
*139 DOUT[7]
*140 DOUT[6]
*141 DOUT[5]
*142 DOUT[4]
*143 DOUT[3]
*144 DOUT[2]
*145 DOUT[1]
*146 DOUT[0]
*147 VOUT
*148 FE_OFN18_mult_66_G5_n474
*149 FE_OFN17_mult_66_G9_n474
*150 FE_OFN16_FE_DBTN0_VIN
*151 FE_OFN15_FE_DBTN0_VIN
*152 FE_OFN14_RST_n
*153 FE_OFN13_RST_n
*154 FE_OFN12_VIN
*155 FE_OFN11_VIN
*156 FE_OFN8_mult_66_G11_n474
*157 FE_OFN7_mult_66_G4_n474
*158 FE_OFN6_mult_66_G6_n474
*159 FE_OFN5_mult_66_G7_n474
*160 FE_OFN4_mult_66_G2_n474
*161 FE_OFN3_mult_66_n474
*162 FE_OFN2_mult_66_G10_n474
*163 FE_OFN1_mult_66_G8_n474
*164 FE_OFN0_mult_66_G3_n474
*165 FE_DBTN0_VIN
*166 N190
*167 N191
*168 N192
*169 N193
*170 N194
*171 N195
*172 N196
*173 N197
*174 N198
*175 N199
*176 N200
*177 n2
*178 n3
*179 n4
*180 n5
*181 n6
*182 n7
*183 n8
*184 n9
*185 n10
*186 n11
*187 n12
*188 n13
*189 n14
*190 n15
*191 n16
*192 n17
*193 n18
*194 n19
*195 n20
*196 n21
*197 n22
*198 n23
*199 n24
*200 n25
*201 n26
*202 n27
*203 n28
*204 n29
*205 n30
*206 n31
*207 n32
*208 n33
*209 n34
*210 n35
*211 n36
*212 n37
*213 n38
*214 n39
*215 n40
*216 n41
*217 n42
*218 n43
*219 n44
*220 n45
*221 n46
*222 n47
*223 n48
*224 n49
*225 n50
*226 n51
*227 n52
*228 n53
*229 n54
*230 n55
*231 n56
*232 n57
*233 n58
*234 n59
*235 n60
*236 n61
*237 n62
*238 n63
*239 n64
*240 n65
*241 n66
*242 n67
*243 n68
*244 n69
*245 n70
*246 n71
*247 n72
*248 n73
*249 n74
*250 n75
*251 n76
*252 n77
*253 n78
*254 n79
*255 n80
*256 n81
*257 n82
*258 n83
*259 n84
*260 n85
*261 n86
*262 n87
*263 n88
*264 n89
*265 n90
*266 n91
*267 n92
*268 n93
*269 n94
*270 n95
*271 n96
*272 n97
*273 n98
*274 n99
*275 n100
*276 n123
*277 n124
*278 n125
*279 n126
*280 n127
*281 n128
*282 n129
*283 n130
*284 n131
*285 n132
*286 n133
*287 n135
*288 n147
*289 n148
*290 n149
*291 n150
*292 n151
*293 n152
*294 n153
*295 n154
*296 n155
*297 n156
*298 n157
*299 n158
*300 n159
*301 n259
*302 n260
*303 n261
*304 n262
*305 n263
*306 n264
*307 n265
*308 n266
*309 n267
*310 n268
*311 n269
*312 n270
*313 n271
*314 n272
*315 n273
*316 n274
*317 n275
*318 n276
*319 n277
*320 n278
*321 n279
*322 n280
*323 n281
*324 n282
*325 n283
*326 n284
*327 n285
*328 n286
*329 n287
*330 n288
*331 n289
*332 n290
*333 n291
*334 muls_9__9_
*335 muls_9__8_
*336 muls_9__7_
*337 muls_9__6_
*338 muls_9__5_
*339 muls_9__4_
*340 muls_9__3_
*341 muls_9__2_
*342 muls_9__20_
*343 muls_9__1_
*344 muls_9__19_
*345 muls_9__18_
*346 muls_9__17_
*347 muls_9__16_
*348 muls_9__15_
*349 muls_9__14_
*350 muls_9__13_
*351 muls_9__12_
*352 muls_9__11_
*353 muls_9__10_
*354 muls_9__0_
*355 muls_8__9_
*356 muls_8__8_
*357 muls_8__7_
*358 muls_8__6_
*359 muls_8__5_
*360 muls_8__4_
*361 muls_8__3_
*362 muls_8__2_
*363 muls_8__20_
*364 muls_8__1_
*365 muls_8__19_
*366 muls_8__18_
*367 muls_8__17_
*368 muls_8__16_
*369 muls_8__15_
*370 muls_8__14_
*371 muls_8__13_
*372 muls_8__12_
*373 muls_8__11_
*374 muls_8__10_
*375 muls_8__0_
*376 muls_7__9_
*377 muls_7__8_
*378 muls_7__7_
*379 muls_7__6_
*380 muls_7__5_
*381 muls_7__4_
*382 muls_7__3_
*383 muls_7__2_
*384 muls_7__20_
*385 muls_7__1_
*386 muls_7__19_
*387 muls_7__18_
*388 muls_7__17_
*389 muls_7__16_
*390 muls_7__15_
*391 muls_7__14_
*392 muls_7__13_
*393 muls_7__12_
*394 muls_7__11_
*395 muls_7__10_
*396 muls_7__0_
*397 muls_6__9_
*398 muls_6__8_
*399 muls_6__7_
*400 muls_6__6_
*401 muls_6__5_
*402 muls_6__4_
*403 muls_6__3_
*404 muls_6__2_
*405 muls_6__20_
*406 muls_6__1_
*407 muls_6__19_
*408 muls_6__18_
*409 muls_6__17_
*410 muls_6__16_
*411 muls_6__15_
*412 muls_6__14_
*413 muls_6__13_
*414 muls_6__12_
*415 muls_6__11_
*416 muls_6__10_
*417 muls_6__0_
*418 muls_5__9_
*419 muls_5__8_
*420 muls_5__7_
*421 muls_5__6_
*422 muls_5__5_
*423 muls_5__4_
*424 muls_5__3_
*425 muls_5__2_
*426 muls_5__20_
*427 muls_5__1_
*428 muls_5__19_
*429 muls_5__18_
*430 muls_5__17_
*431 muls_5__16_
*432 muls_5__15_
*433 muls_5__14_
*434 muls_5__13_
*435 muls_5__12_
*436 muls_5__11_
*437 muls_5__10_
*438 muls_5__0_
*439 muls_4__9_
*440 muls_4__8_
*441 muls_4__7_
*442 muls_4__6_
*443 muls_4__5_
*444 muls_4__4_
*445 muls_4__3_
*446 muls_4__2_
*447 muls_4__20_
*448 muls_4__1_
*449 muls_4__19_
*450 muls_4__18_
*451 muls_4__17_
*452 muls_4__16_
*453 muls_4__15_
*454 muls_4__14_
*455 muls_4__13_
*456 muls_4__12_
*457 muls_4__11_
*458 muls_4__10_
*459 muls_4__0_
*460 muls_3__9_
*461 muls_3__8_
*462 muls_3__7_
*463 muls_3__6_
*464 muls_3__5_
*465 muls_3__4_
*466 muls_3__3_
*467 muls_3__2_
*468 muls_3__20_
*469 muls_3__1_
*470 muls_3__19_
*471 muls_3__18_
*472 muls_3__17_
*473 muls_3__16_
*474 muls_3__15_
*475 muls_3__14_
*476 muls_3__13_
*477 muls_3__12_
*478 muls_3__11_
*479 muls_3__10_
*480 muls_3__0_
*481 muls_2__9_
*482 muls_2__8_
*483 muls_2__7_
*484 muls_2__6_
*485 muls_2__5_
*486 muls_2__4_
*487 muls_2__3_
*488 muls_2__2_
*489 muls_2__20_
*490 muls_2__1_
*491 muls_2__19_
*492 muls_2__18_
*493 muls_2__17_
*494 muls_2__16_
*495 muls_2__15_
*496 muls_2__14_
*497 muls_2__13_
*498 muls_2__12_
*499 muls_2__11_
*500 muls_2__10_
*501 muls_2__0_
*502 muls_1__9_
*503 muls_1__8_
*504 muls_1__7_
*505 muls_1__6_
*506 muls_1__5_
*507 muls_1__4_
*508 muls_1__3_
*509 muls_1__2_
*510 muls_1__20_
*511 muls_1__1_
*512 muls_1__19_
*513 muls_1__18_
*514 muls_1__17_
*515 muls_1__16_
*516 muls_1__15_
*517 muls_1__14_
*518 muls_1__13_
*519 muls_1__12_
*520 muls_1__11_
*521 muls_1__10_
*522 muls_1__0_
*523 muls_10__9_
*524 muls_10__8_
*525 muls_10__7_
*526 muls_10__6_
*527 muls_10__5_
*528 muls_10__4_
*529 muls_10__3_
*530 muls_10__2_
*531 muls_10__20_
*532 muls_10__1_
*533 muls_10__19_
*534 muls_10__18_
*535 muls_10__17_
*536 muls_10__16_
*537 muls_10__15_
*538 muls_10__14_
*539 muls_10__13_
*540 muls_10__12_
*541 muls_10__11_
*542 muls_10__10_
*543 muls_10__0_
*544 muls_0__9_
*545 muls_0__8_
*546 muls_0__7_
*547 muls_0__6_
*548 muls_0__5_
*549 muls_0__4_
*550 muls_0__3_
*551 muls_0__2_
*552 muls_0__20_
*553 muls_0__1_
*554 muls_0__19_
*555 muls_0__18_
*556 muls_0__17_
*557 muls_0__16_
*558 muls_0__15_
*559 muls_0__14_
*560 muls_0__13_
*561 muls_0__12_
*562 muls_0__11_
*563 muls_0__10_
*564 muls_0__0_
*565 N99
*566 N98
*567 N97
*568 N96
*569 N95
*570 N94
*571 N93
*572 N92
*573 N91
*574 N90
*575 N9
*576 N89
*577 N88
*578 N87
*579 N86
*580 N85
*581 N84
*582 N83
*583 N82
*584 N81
*585 N80
*586 N8
*587 N79
*588 N78
*589 N77
*590 N76
*591 N75
*592 N74
*593 N73
*594 N72
*595 N71
*596 N70
*597 N7
*598 N69
*599 N68
*600 N67
*601 N66
*602 N65
*603 N64
*604 N63
*605 N62
*606 N61
*607 N60
*608 N6
*609 N59
*610 N58
*611 N57
*612 N56
*613 N55
*614 N54
*615 N53
*616 N52
*617 N51
*618 N50
*619 N5
*620 N49
*621 N48
*622 N47
*623 N46
*624 N45
*625 N44
*626 N43
*627 N42
*628 N41
*629 N40
*630 N4
*631 N39
*632 N38
*633 N37
*634 N36
*635 N35
*636 N34
*637 N33
*638 N32
*639 N31
*640 N30
*641 N3
*642 N29
*643 N28
*644 N27
*645 N26
*646 N25
*647 N24
*648 N23
*649 N22
*650 N21
*651 N20
*652 N2
*653 N19
*654 N189
*655 N188
*656 N187
*657 N186
*658 N185
*659 N184
*660 N183
*661 N182
*662 N181
*663 N180
*664 N18
*665 N179
*666 N178
*667 N177
*668 N176
*669 N175
*670 N174
*671 N173
*672 N172
*673 N171
*674 N170
*675 N17
*676 N169
*677 N168
*678 N167
*679 N166
*680 N165
*681 N164
*682 N163
*683 N162
*684 N161
*685 N160
*686 N16
*687 N159
*688 N158
*689 N157
*690 N156
*691 N155
*692 N154
*693 N153
*694 N152
*695 N151
*696 N150
*697 N15
*698 N149
*699 N148
*700 N147
*701 N146
*702 N145
*703 N144
*704 N143
*705 N142
*706 N141
*707 N140
*708 N14
*709 N139
*710 N138
*711 N137
*712 N136
*713 N135
*714 N134
*715 N133
*716 N132
*717 N131
*718 N130
*719 N13
*720 N129
*721 N128
*722 N127
*723 N126
*724 N125
*725 N124
*726 N123
*727 N122
*728 N121
*729 N120
*730 N12
*731 N119
*732 N118
*733 N117
*734 N116
*735 N115
*736 N114
*737 N113
*738 N112
*739 N111
*740 N110
*741 N11
*742 N109
*743 N108
*744 N107
*745 N106
*746 N105
*747 N104
*748 N103
*749 N102
*750 N101
*751 N100
*752 N10
*753 N1
*754 n292
*755 n293
*756 n294
*757 n295
*758 n296
*759 n297
*760 n298
*761 n299
*762 n300
*763 n301
*764 n302
*765 n303
*766 n304
*767 n305
*768 n306
*769 n307
*770 n308
*771 n309
*772 n310
*773 n311
*774 n312
*775 n313
*776 n398
*777 n399
*778 n400
*779 n401
*780 n402
*781 n403
*782 n404
*783 n405
*784 n406
*785 n407
*786 n408
*787 n409
*788 n410
*789 n411
*790 n412
*791 n413
*792 n414
*793 n415
*794 n416
*795 n417
*796 n418
*797 n419
*798 n420
*799 n421
*800 n422
*801 n423
*802 n424
*803 n425
*804 n426
*805 n427
*806 n428
*807 n429
*808 n430
*809 n431
*810 n432
*811 n433
*812 n434
*813 n435
*814 n436
*815 n437
*816 n438
*817 n439
*818 n440
*819 n441
*820 n442
*821 n443
*822 n444
*823 n445
*824 n446
*825 n447
*826 n448
*827 n449
*828 n450
*829 n451
*830 n452
*831 n453
*832 n454
*833 n455
*834 n456
*835 n457
*836 n458
*837 n459
*838 n460
*839 n461
*840 n462
*841 n463
*842 n464
*843 n465
*844 n466
*845 n467
*846 n468
*847 n469
*848 n470
*849 n471
*850 n472
*851 n473
*852 n474
*853 n475
*854 n476
*855 n477
*856 n478
*857 n479
*858 n480
*859 n481
*860 n482
*861 n483
*862 n484
*863 n485
*864 n486
*865 n487
*866 n488
*867 n489
*868 n490
*869 n491
*870 n492
*871 n493
*872 n494
*873 n495
*874 n496
*875 n497
*876 n498
*877 n499
*878 n500
*879 n501
*880 n502
*881 n503
*882 n504
*883 n505
*884 n506
*885 n507
*886 n508
*887 mult_66_n490
*888 mult_66_n489
*889 mult_66_n488
*890 mult_66_n487
*891 mult_66_n486
*892 mult_66_n485
*893 mult_66_n484
*894 mult_66_n483
*895 mult_66_n482
*896 mult_66_n481
*897 mult_66_n480
*898 mult_66_n479
*899 mult_66_n478
*900 mult_66_n477
*901 mult_66_n476
*902 mult_66_n475
*903 mult_66_n474
*904 mult_66_n473
*905 mult_66_n472
*906 mult_66_n471
*907 mult_66_n470
*908 mult_66_n469
*909 mult_66_n468
*910 mult_66_n467
*911 mult_66_n466
*912 mult_66_n465
*913 mult_66_n464
*914 mult_66_n463
*915 mult_66_n462
*916 mult_66_n461
*917 mult_66_n460
*918 mult_66_n459
*919 mult_66_n458
*920 mult_66_n457
*921 mult_66_n456
*922 mult_66_n455
*923 mult_66_n454
*924 mult_66_n453
*925 mult_66_n452
*926 mult_66_n451
*927 mult_66_n450
*928 mult_66_n449
*929 mult_66_n448
*930 mult_66_n447
*931 mult_66_n446
*932 mult_66_n445
*933 mult_66_n444
*934 mult_66_n443
*935 mult_66_n442
*936 mult_66_n441
*937 mult_66_n440
*938 mult_66_n439
*939 mult_66_n438
*940 mult_66_n437
*941 mult_66_n436
*942 mult_66_n435
*943 mult_66_n434
*944 mult_66_n433
*945 mult_66_n432
*946 mult_66_n431
*947 mult_66_n430
*948 mult_66_n429
*949 mult_66_n428
*950 mult_66_n427
*951 mult_66_n426
*952 mult_66_n425
*953 mult_66_n424
*954 mult_66_n423
*955 mult_66_n422
*956 mult_66_n421
*957 mult_66_n420
*958 mult_66_n419
*959 mult_66_n418
*960 mult_66_n417
*961 mult_66_n416
*962 mult_66_n415
*963 mult_66_n414
*964 mult_66_n413
*965 mult_66_n412
*966 mult_66_n411
*967 mult_66_n410
*968 mult_66_n409
*969 mult_66_n408
*970 mult_66_n407
*971 mult_66_n406
*972 mult_66_n405
*973 mult_66_n404
*974 mult_66_n403
*975 mult_66_n402
*976 mult_66_n401
*977 mult_66_n400
*978 mult_66_n399
*979 mult_66_n398
*980 mult_66_n397
*981 mult_66_n396
*982 mult_66_n395
*983 mult_66_n394
*984 mult_66_n393
*985 mult_66_n392
*986 mult_66_n391
*987 mult_66_n390
*988 mult_66_n389
*989 mult_66_n388
*990 mult_66_n387
*991 mult_66_n386
*992 mult_66_n385
*993 mult_66_n384
*994 mult_66_n383
*995 mult_66_n382
*996 mult_66_n210
*997 mult_66_n209
*998 mult_66_n208
*999 mult_66_n207
*1000 mult_66_n206
*1001 mult_66_n205
*1002 mult_66_n204
*1003 mult_66_n203
*1004 mult_66_n202
*1005 mult_66_n201
*1006 mult_66_n199
*1007 mult_66_n198
*1008 mult_66_n197
*1009 mult_66_n196
*1010 mult_66_n195
*1011 mult_66_n194
*1012 mult_66_n193
*1013 mult_66_n192
*1014 mult_66_n191
*1015 mult_66_n190
*1016 mult_66_n188
*1017 mult_66_n187
*1018 mult_66_n186
*1019 mult_66_n185
*1020 mult_66_n184
*1021 mult_66_n183
*1022 mult_66_n182
*1023 mult_66_n181
*1024 mult_66_n180
*1025 mult_66_n179
*1026 mult_66_n177
*1027 mult_66_n176
*1028 mult_66_n175
*1029 mult_66_n174
*1030 mult_66_n173
*1031 mult_66_n172
*1032 mult_66_n171
*1033 mult_66_n170
*1034 mult_66_n169
*1035 mult_66_n168
*1036 mult_66_n166
*1037 mult_66_n165
*1038 mult_66_n164
*1039 mult_66_n162
*1040 mult_66_n161
*1041 mult_66_n160
*1042 mult_66_n159
*1043 mult_66_n158
*1044 mult_66_n157
*1045 mult_66_n155
*1046 mult_66_n153
*1047 mult_66_n152
*1048 mult_66_n151
*1049 mult_66_n150
*1050 mult_66_n149
*1051 mult_66_n148
*1052 mult_66_n147
*1053 mult_66_n146
*1054 mult_66_n144
*1055 mult_66_n143
*1056 mult_66_n142
*1057 mult_66_n141
*1058 mult_66_n140
*1059 mult_66_n139
*1060 mult_66_n121
*1061 mult_66_n120
*1062 mult_66_n119
*1063 mult_66_n118
*1064 mult_66_n117
*1065 mult_66_n116
*1066 mult_66_n115
*1067 mult_66_n114
*1068 mult_66_n113
*1069 mult_66_n112
*1070 mult_66_n111
*1071 mult_66_n110
*1072 mult_66_n109
*1073 mult_66_n108
*1074 mult_66_n107
*1075 mult_66_n106
*1076 mult_66_n105
*1077 mult_66_n104
*1078 mult_66_n103
*1079 mult_66_n102
*1080 mult_66_n101
*1081 mult_66_n100
*1082 mult_66_n99
*1083 mult_66_n98
*1084 mult_66_n97
*1085 mult_66_n96
*1086 mult_66_n95
*1087 mult_66_n94
*1088 mult_66_n93
*1089 mult_66_n92
*1090 mult_66_n91
*1091 mult_66_n90
*1092 mult_66_n89
*1093 mult_66_n88
*1094 mult_66_n87
*1095 mult_66_n86
*1096 mult_66_n85
*1097 mult_66_n84
*1098 mult_66_n83
*1099 mult_66_n82
*1100 mult_66_n81
*1101 mult_66_n80
*1102 mult_66_n79
*1103 mult_66_n78
*1104 mult_66_n77
*1105 mult_66_n76
*1106 mult_66_n75
*1107 mult_66_n74
*1108 mult_66_n73
*1109 mult_66_n72
*1110 mult_66_n70
*1111 mult_66_n69
*1112 mult_66_n68
*1113 mult_66_n67
*1114 mult_66_n66
*1115 mult_66_n65
*1116 mult_66_n64
*1117 mult_66_n63
*1118 mult_66_n62
*1119 mult_66_n61
*1120 mult_66_n60
*1121 mult_66_n59
*1122 mult_66_n58
*1123 mult_66_n57
*1124 mult_66_n56
*1125 mult_66_n55
*1126 mult_66_n54
*1127 mult_66_n52
*1128 mult_66_n51
*1129 mult_66_n50
*1130 mult_66_n49
*1131 mult_66_n48
*1132 mult_66_n47
*1133 mult_66_n46
*1134 mult_66_n45
*1135 mult_66_n44
*1136 mult_66_n43
*1137 mult_66_n42
*1138 mult_66_n41
*1139 mult_66_n40
*1140 mult_66_n38
*1141 mult_66_n37
*1142 mult_66_n36
*1143 mult_66_n35
*1144 mult_66_n34
*1145 mult_66_n33
*1146 mult_66_n32
*1147 mult_66_n31
*1148 mult_66_n30
*1149 mult_66_n28
*1150 mult_66_n27
*1151 mult_66_n26
*1152 mult_66_n25
*1153 mult_66_n24
*1154 mult_66_n22
*1155 mult_66_n21
*1156 mult_66_n20
*1157 mult_66_n19
*1158 mult_66_n18
*1159 mult_66_n17
*1160 mult_66_n16
*1161 mult_66_n15
*1162 mult_66_n14
*1163 mult_66_n13
*1164 mult_66_n12
*1165 mult_66_n11
*1166 mult_66_n10
*1167 mult_66_n9
*1168 mult_66_n8
*1169 mult_66_n7
*1170 mult_66_n6
*1171 mult_66_n5
*1172 mult_66_n4
*1173 mult_66_G2_n490
*1174 mult_66_G2_n489
*1175 mult_66_G2_n488
*1176 mult_66_G2_n487
*1177 mult_66_G2_n486
*1178 mult_66_G2_n485
*1179 mult_66_G2_n484
*1180 mult_66_G2_n483
*1181 mult_66_G2_n482
*1182 mult_66_G2_n481
*1183 mult_66_G2_n480
*1184 mult_66_G2_n479
*1185 mult_66_G2_n478
*1186 mult_66_G2_n477
*1187 mult_66_G2_n476
*1188 mult_66_G2_n475
*1189 mult_66_G2_n474
*1190 mult_66_G2_n473
*1191 mult_66_G2_n472
*1192 mult_66_G2_n471
*1193 mult_66_G2_n470
*1194 mult_66_G2_n469
*1195 mult_66_G2_n468
*1196 mult_66_G2_n467
*1197 mult_66_G2_n466
*1198 mult_66_G2_n465
*1199 mult_66_G2_n464
*1200 mult_66_G2_n463
*1201 mult_66_G2_n462
*1202 mult_66_G2_n461
*1203 mult_66_G2_n460
*1204 mult_66_G2_n459
*1205 mult_66_G2_n458
*1206 mult_66_G2_n457
*1207 mult_66_G2_n456
*1208 mult_66_G2_n455
*1209 mult_66_G2_n454
*1210 mult_66_G2_n453
*1211 mult_66_G2_n452
*1212 mult_66_G2_n451
*1213 mult_66_G2_n450
*1214 mult_66_G2_n449
*1215 mult_66_G2_n448
*1216 mult_66_G2_n447
*1217 mult_66_G2_n446
*1218 mult_66_G2_n445
*1219 mult_66_G2_n444
*1220 mult_66_G2_n443
*1221 mult_66_G2_n442
*1222 mult_66_G2_n441
*1223 mult_66_G2_n440
*1224 mult_66_G2_n439
*1225 mult_66_G2_n438
*1226 mult_66_G2_n437
*1227 mult_66_G2_n436
*1228 mult_66_G2_n435
*1229 mult_66_G2_n434
*1230 mult_66_G2_n433
*1231 mult_66_G2_n432
*1232 mult_66_G2_n431
*1233 mult_66_G2_n430
*1234 mult_66_G2_n429
*1235 mult_66_G2_n428
*1236 mult_66_G2_n427
*1237 mult_66_G2_n426
*1238 mult_66_G2_n425
*1239 mult_66_G2_n424
*1240 mult_66_G2_n423
*1241 mult_66_G2_n422
*1242 mult_66_G2_n421
*1243 mult_66_G2_n420
*1244 mult_66_G2_n419
*1245 mult_66_G2_n418
*1246 mult_66_G2_n417
*1247 mult_66_G2_n416
*1248 mult_66_G2_n415
*1249 mult_66_G2_n414
*1250 mult_66_G2_n413
*1251 mult_66_G2_n412
*1252 mult_66_G2_n411
*1253 mult_66_G2_n410
*1254 mult_66_G2_n409
*1255 mult_66_G2_n408
*1256 mult_66_G2_n407
*1257 mult_66_G2_n406
*1258 mult_66_G2_n405
*1259 mult_66_G2_n404
*1260 mult_66_G2_n403
*1261 mult_66_G2_n402
*1262 mult_66_G2_n401
*1263 mult_66_G2_n400
*1264 mult_66_G2_n399
*1265 mult_66_G2_n398
*1266 mult_66_G2_n397
*1267 mult_66_G2_n396
*1268 mult_66_G2_n395
*1269 mult_66_G2_n394
*1270 mult_66_G2_n393
*1271 mult_66_G2_n392
*1272 mult_66_G2_n391
*1273 mult_66_G2_n390
*1274 mult_66_G2_n389
*1275 mult_66_G2_n388
*1276 mult_66_G2_n387
*1277 mult_66_G2_n386
*1278 mult_66_G2_n385
*1279 mult_66_G2_n384
*1280 mult_66_G2_n383
*1281 mult_66_G2_n382
*1282 mult_66_G2_n210
*1283 mult_66_G2_n209
*1284 mult_66_G2_n208
*1285 mult_66_G2_n207
*1286 mult_66_G2_n206
*1287 mult_66_G2_n205
*1288 mult_66_G2_n204
*1289 mult_66_G2_n203
*1290 mult_66_G2_n202
*1291 mult_66_G2_n201
*1292 mult_66_G2_n199
*1293 mult_66_G2_n198
*1294 mult_66_G2_n197
*1295 mult_66_G2_n196
*1296 mult_66_G2_n195
*1297 mult_66_G2_n194
*1298 mult_66_G2_n193
*1299 mult_66_G2_n192
*1300 mult_66_G2_n191
*1301 mult_66_G2_n190
*1302 mult_66_G2_n188
*1303 mult_66_G2_n187
*1304 mult_66_G2_n186
*1305 mult_66_G2_n185
*1306 mult_66_G2_n184
*1307 mult_66_G2_n183
*1308 mult_66_G2_n182
*1309 mult_66_G2_n181
*1310 mult_66_G2_n180
*1311 mult_66_G2_n179
*1312 mult_66_G2_n177
*1313 mult_66_G2_n176
*1314 mult_66_G2_n175
*1315 mult_66_G2_n174
*1316 mult_66_G2_n173
*1317 mult_66_G2_n172
*1318 mult_66_G2_n171
*1319 mult_66_G2_n170
*1320 mult_66_G2_n169
*1321 mult_66_G2_n168
*1322 mult_66_G2_n166
*1323 mult_66_G2_n165
*1324 mult_66_G2_n164
*1325 mult_66_G2_n162
*1326 mult_66_G2_n161
*1327 mult_66_G2_n160
*1328 mult_66_G2_n159
*1329 mult_66_G2_n158
*1330 mult_66_G2_n157
*1331 mult_66_G2_n155
*1332 mult_66_G2_n153
*1333 mult_66_G2_n152
*1334 mult_66_G2_n151
*1335 mult_66_G2_n150
*1336 mult_66_G2_n149
*1337 mult_66_G2_n148
*1338 mult_66_G2_n147
*1339 mult_66_G2_n146
*1340 mult_66_G2_n144
*1341 mult_66_G2_n143
*1342 mult_66_G2_n142
*1343 mult_66_G2_n141
*1344 mult_66_G2_n140
*1345 mult_66_G2_n139
*1346 mult_66_G2_n121
*1347 mult_66_G2_n120
*1348 mult_66_G2_n119
*1349 mult_66_G2_n118
*1350 mult_66_G2_n117
*1351 mult_66_G2_n116
*1352 mult_66_G2_n115
*1353 mult_66_G2_n114
*1354 mult_66_G2_n113
*1355 mult_66_G2_n112
*1356 mult_66_G2_n111
*1357 mult_66_G2_n110
*1358 mult_66_G2_n109
*1359 mult_66_G2_n108
*1360 mult_66_G2_n107
*1361 mult_66_G2_n106
*1362 mult_66_G2_n105
*1363 mult_66_G2_n104
*1364 mult_66_G2_n103
*1365 mult_66_G2_n102
*1366 mult_66_G2_n101
*1367 mult_66_G2_n100
*1368 mult_66_G2_n99
*1369 mult_66_G2_n98
*1370 mult_66_G2_n97
*1371 mult_66_G2_n96
*1372 mult_66_G2_n95
*1373 mult_66_G2_n94
*1374 mult_66_G2_n93
*1375 mult_66_G2_n92
*1376 mult_66_G2_n91
*1377 mult_66_G2_n90
*1378 mult_66_G2_n89
*1379 mult_66_G2_n88
*1380 mult_66_G2_n87
*1381 mult_66_G2_n86
*1382 mult_66_G2_n85
*1383 mult_66_G2_n84
*1384 mult_66_G2_n83
*1385 mult_66_G2_n82
*1386 mult_66_G2_n81
*1387 mult_66_G2_n80
*1388 mult_66_G2_n79
*1389 mult_66_G2_n78
*1390 mult_66_G2_n77
*1391 mult_66_G2_n76
*1392 mult_66_G2_n75
*1393 mult_66_G2_n74
*1394 mult_66_G2_n73
*1395 mult_66_G2_n72
*1396 mult_66_G2_n70
*1397 mult_66_G2_n69
*1398 mult_66_G2_n68
*1399 mult_66_G2_n67
*1400 mult_66_G2_n66
*1401 mult_66_G2_n65
*1402 mult_66_G2_n64
*1403 mult_66_G2_n63
*1404 mult_66_G2_n62
*1405 mult_66_G2_n61
*1406 mult_66_G2_n60
*1407 mult_66_G2_n59
*1408 mult_66_G2_n58
*1409 mult_66_G2_n57
*1410 mult_66_G2_n56
*1411 mult_66_G2_n55
*1412 mult_66_G2_n54
*1413 mult_66_G2_n52
*1414 mult_66_G2_n51
*1415 mult_66_G2_n50
*1416 mult_66_G2_n49
*1417 mult_66_G2_n48
*1418 mult_66_G2_n47
*1419 mult_66_G2_n46
*1420 mult_66_G2_n45
*1421 mult_66_G2_n44
*1422 mult_66_G2_n43
*1423 mult_66_G2_n42
*1424 mult_66_G2_n41
*1425 mult_66_G2_n40
*1426 mult_66_G2_n38
*1427 mult_66_G2_n37
*1428 mult_66_G2_n36
*1429 mult_66_G2_n35
*1430 mult_66_G2_n34
*1431 mult_66_G2_n33
*1432 mult_66_G2_n32
*1433 mult_66_G2_n31
*1434 mult_66_G2_n30
*1435 mult_66_G2_n28
*1436 mult_66_G2_n27
*1437 mult_66_G2_n26
*1438 mult_66_G2_n25
*1439 mult_66_G2_n24
*1440 mult_66_G2_n22
*1441 mult_66_G2_n21
*1442 mult_66_G2_n20
*1443 mult_66_G2_n19
*1444 mult_66_G2_n18
*1445 mult_66_G2_n17
*1446 mult_66_G2_n16
*1447 mult_66_G2_n15
*1448 mult_66_G2_n14
*1449 mult_66_G2_n13
*1450 mult_66_G2_n12
*1451 mult_66_G2_n11
*1452 mult_66_G2_n10
*1453 mult_66_G2_n9
*1454 mult_66_G2_n8
*1455 mult_66_G2_n7
*1456 mult_66_G2_n6
*1457 mult_66_G2_n5
*1458 mult_66_G2_n4
*1459 mult_66_G3_n490
*1460 mult_66_G3_n489
*1461 mult_66_G3_n488
*1462 mult_66_G3_n487
*1463 mult_66_G3_n486
*1464 mult_66_G3_n485
*1465 mult_66_G3_n484
*1466 mult_66_G3_n483
*1467 mult_66_G3_n482
*1468 mult_66_G3_n481
*1469 mult_66_G3_n480
*1470 mult_66_G3_n479
*1471 mult_66_G3_n478
*1472 mult_66_G3_n477
*1473 mult_66_G3_n476
*1474 mult_66_G3_n475
*1475 mult_66_G3_n474
*1476 mult_66_G3_n473
*1477 mult_66_G3_n472
*1478 mult_66_G3_n471
*1479 mult_66_G3_n470
*1480 mult_66_G3_n469
*1481 mult_66_G3_n468
*1482 mult_66_G3_n467
*1483 mult_66_G3_n466
*1484 mult_66_G3_n465
*1485 mult_66_G3_n464
*1486 mult_66_G3_n463
*1487 mult_66_G3_n462
*1488 mult_66_G3_n461
*1489 mult_66_G3_n460
*1490 mult_66_G3_n459
*1491 mult_66_G3_n458
*1492 mult_66_G3_n457
*1493 mult_66_G3_n456
*1494 mult_66_G3_n455
*1495 mult_66_G3_n454
*1496 mult_66_G3_n453
*1497 mult_66_G3_n452
*1498 mult_66_G3_n451
*1499 mult_66_G3_n450
*1500 mult_66_G3_n449
*1501 mult_66_G3_n448
*1502 mult_66_G3_n447
*1503 mult_66_G3_n446
*1504 mult_66_G3_n445
*1505 mult_66_G3_n444
*1506 mult_66_G3_n443
*1507 mult_66_G3_n442
*1508 mult_66_G3_n441
*1509 mult_66_G3_n440
*1510 mult_66_G3_n439
*1511 mult_66_G3_n438
*1512 mult_66_G3_n437
*1513 mult_66_G3_n436
*1514 mult_66_G3_n435
*1515 mult_66_G3_n434
*1516 mult_66_G3_n433
*1517 mult_66_G3_n432
*1518 mult_66_G3_n431
*1519 mult_66_G3_n430
*1520 mult_66_G3_n429
*1521 mult_66_G3_n428
*1522 mult_66_G3_n427
*1523 mult_66_G3_n426
*1524 mult_66_G3_n425
*1525 mult_66_G3_n424
*1526 mult_66_G3_n423
*1527 mult_66_G3_n422
*1528 mult_66_G3_n421
*1529 mult_66_G3_n420
*1530 mult_66_G3_n419
*1531 mult_66_G3_n418
*1532 mult_66_G3_n417
*1533 mult_66_G3_n416
*1534 mult_66_G3_n415
*1535 mult_66_G3_n414
*1536 mult_66_G3_n413
*1537 mult_66_G3_n412
*1538 mult_66_G3_n411
*1539 mult_66_G3_n410
*1540 mult_66_G3_n409
*1541 mult_66_G3_n408
*1542 mult_66_G3_n407
*1543 mult_66_G3_n406
*1544 mult_66_G3_n405
*1545 mult_66_G3_n404
*1546 mult_66_G3_n403
*1547 mult_66_G3_n402
*1548 mult_66_G3_n401
*1549 mult_66_G3_n400
*1550 mult_66_G3_n399
*1551 mult_66_G3_n398
*1552 mult_66_G3_n397
*1553 mult_66_G3_n396
*1554 mult_66_G3_n395
*1555 mult_66_G3_n394
*1556 mult_66_G3_n393
*1557 mult_66_G3_n392
*1558 mult_66_G3_n391
*1559 mult_66_G3_n390
*1560 mult_66_G3_n389
*1561 mult_66_G3_n388
*1562 mult_66_G3_n387
*1563 mult_66_G3_n386
*1564 mult_66_G3_n385
*1565 mult_66_G3_n384
*1566 mult_66_G3_n383
*1567 mult_66_G3_n382
*1568 mult_66_G3_n210
*1569 mult_66_G3_n209
*1570 mult_66_G3_n208
*1571 mult_66_G3_n207
*1572 mult_66_G3_n206
*1573 mult_66_G3_n205
*1574 mult_66_G3_n204
*1575 mult_66_G3_n203
*1576 mult_66_G3_n202
*1577 mult_66_G3_n201
*1578 mult_66_G3_n199
*1579 mult_66_G3_n198
*1580 mult_66_G3_n197
*1581 mult_66_G3_n196
*1582 mult_66_G3_n195
*1583 mult_66_G3_n194
*1584 mult_66_G3_n193
*1585 mult_66_G3_n192
*1586 mult_66_G3_n191
*1587 mult_66_G3_n190
*1588 mult_66_G3_n188
*1589 mult_66_G3_n187
*1590 mult_66_G3_n186
*1591 mult_66_G3_n185
*1592 mult_66_G3_n184
*1593 mult_66_G3_n183
*1594 mult_66_G3_n182
*1595 mult_66_G3_n181
*1596 mult_66_G3_n180
*1597 mult_66_G3_n179
*1598 mult_66_G3_n177
*1599 mult_66_G3_n176
*1600 mult_66_G3_n175
*1601 mult_66_G3_n174
*1602 mult_66_G3_n173
*1603 mult_66_G3_n172
*1604 mult_66_G3_n171
*1605 mult_66_G3_n170
*1606 mult_66_G3_n169
*1607 mult_66_G3_n168
*1608 mult_66_G3_n166
*1609 mult_66_G3_n165
*1610 mult_66_G3_n164
*1611 mult_66_G3_n162
*1612 mult_66_G3_n161
*1613 mult_66_G3_n160
*1614 mult_66_G3_n159
*1615 mult_66_G3_n158
*1616 mult_66_G3_n157
*1617 mult_66_G3_n155
*1618 mult_66_G3_n153
*1619 mult_66_G3_n152
*1620 mult_66_G3_n151
*1621 mult_66_G3_n150
*1622 mult_66_G3_n149
*1623 mult_66_G3_n148
*1624 mult_66_G3_n147
*1625 mult_66_G3_n146
*1626 mult_66_G3_n144
*1627 mult_66_G3_n143
*1628 mult_66_G3_n142
*1629 mult_66_G3_n141
*1630 mult_66_G3_n140
*1631 mult_66_G3_n139
*1632 mult_66_G3_n121
*1633 mult_66_G3_n120
*1634 mult_66_G3_n119
*1635 mult_66_G3_n118
*1636 mult_66_G3_n117
*1637 mult_66_G3_n116
*1638 mult_66_G3_n115
*1639 mult_66_G3_n114
*1640 mult_66_G3_n113
*1641 mult_66_G3_n112
*1642 mult_66_G3_n111
*1643 mult_66_G3_n110
*1644 mult_66_G3_n109
*1645 mult_66_G3_n108
*1646 mult_66_G3_n107
*1647 mult_66_G3_n106
*1648 mult_66_G3_n105
*1649 mult_66_G3_n104
*1650 mult_66_G3_n103
*1651 mult_66_G3_n102
*1652 mult_66_G3_n101
*1653 mult_66_G3_n100
*1654 mult_66_G3_n99
*1655 mult_66_G3_n98
*1656 mult_66_G3_n97
*1657 mult_66_G3_n96
*1658 mult_66_G3_n95
*1659 mult_66_G3_n94
*1660 mult_66_G3_n93
*1661 mult_66_G3_n92
*1662 mult_66_G3_n91
*1663 mult_66_G3_n90
*1664 mult_66_G3_n89
*1665 mult_66_G3_n88
*1666 mult_66_G3_n87
*1667 mult_66_G3_n86
*1668 mult_66_G3_n85
*1669 mult_66_G3_n84
*1670 mult_66_G3_n83
*1671 mult_66_G3_n82
*1672 mult_66_G3_n81
*1673 mult_66_G3_n80
*1674 mult_66_G3_n79
*1675 mult_66_G3_n78
*1676 mult_66_G3_n77
*1677 mult_66_G3_n76
*1678 mult_66_G3_n75
*1679 mult_66_G3_n74
*1680 mult_66_G3_n73
*1681 mult_66_G3_n72
*1682 mult_66_G3_n70
*1683 mult_66_G3_n69
*1684 mult_66_G3_n68
*1685 mult_66_G3_n67
*1686 mult_66_G3_n66
*1687 mult_66_G3_n65
*1688 mult_66_G3_n64
*1689 mult_66_G3_n63
*1690 mult_66_G3_n62
*1691 mult_66_G3_n61
*1692 mult_66_G3_n60
*1693 mult_66_G3_n59
*1694 mult_66_G3_n58
*1695 mult_66_G3_n57
*1696 mult_66_G3_n56
*1697 mult_66_G3_n55
*1698 mult_66_G3_n54
*1699 mult_66_G3_n52
*1700 mult_66_G3_n51
*1701 mult_66_G3_n50
*1702 mult_66_G3_n49
*1703 mult_66_G3_n48
*1704 mult_66_G3_n47
*1705 mult_66_G3_n46
*1706 mult_66_G3_n45
*1707 mult_66_G3_n44
*1708 mult_66_G3_n43
*1709 mult_66_G3_n42
*1710 mult_66_G3_n41
*1711 mult_66_G3_n40
*1712 mult_66_G3_n38
*1713 mult_66_G3_n37
*1714 mult_66_G3_n36
*1715 mult_66_G3_n35
*1716 mult_66_G3_n34
*1717 mult_66_G3_n33
*1718 mult_66_G3_n32
*1719 mult_66_G3_n31
*1720 mult_66_G3_n30
*1721 mult_66_G3_n28
*1722 mult_66_G3_n27
*1723 mult_66_G3_n26
*1724 mult_66_G3_n25
*1725 mult_66_G3_n24
*1726 mult_66_G3_n22
*1727 mult_66_G3_n21
*1728 mult_66_G3_n20
*1729 mult_66_G3_n19
*1730 mult_66_G3_n18
*1731 mult_66_G3_n17
*1732 mult_66_G3_n16
*1733 mult_66_G3_n15
*1734 mult_66_G3_n14
*1735 mult_66_G3_n13
*1736 mult_66_G3_n12
*1737 mult_66_G3_n11
*1738 mult_66_G3_n10
*1739 mult_66_G3_n9
*1740 mult_66_G3_n8
*1741 mult_66_G3_n7
*1742 mult_66_G3_n6
*1743 mult_66_G3_n5
*1744 mult_66_G3_n4
*1745 mult_66_G4_n490
*1746 mult_66_G4_n489
*1747 mult_66_G4_n488
*1748 mult_66_G4_n487
*1749 mult_66_G4_n486
*1750 mult_66_G4_n485
*1751 mult_66_G4_n484
*1752 mult_66_G4_n483
*1753 mult_66_G4_n482
*1754 mult_66_G4_n481
*1755 mult_66_G4_n480
*1756 mult_66_G4_n479
*1757 mult_66_G4_n478
*1758 mult_66_G4_n477
*1759 mult_66_G4_n476
*1760 mult_66_G4_n475
*1761 mult_66_G4_n474
*1762 mult_66_G4_n473
*1763 mult_66_G4_n472
*1764 mult_66_G4_n471
*1765 mult_66_G4_n470
*1766 mult_66_G4_n469
*1767 mult_66_G4_n468
*1768 mult_66_G4_n467
*1769 mult_66_G4_n466
*1770 mult_66_G4_n465
*1771 mult_66_G4_n464
*1772 mult_66_G4_n463
*1773 mult_66_G4_n462
*1774 mult_66_G4_n461
*1775 mult_66_G4_n460
*1776 mult_66_G4_n459
*1777 mult_66_G4_n458
*1778 mult_66_G4_n457
*1779 mult_66_G4_n456
*1780 mult_66_G4_n455
*1781 mult_66_G4_n454
*1782 mult_66_G4_n453
*1783 mult_66_G4_n452
*1784 mult_66_G4_n451
*1785 mult_66_G4_n450
*1786 mult_66_G4_n449
*1787 mult_66_G4_n448
*1788 mult_66_G4_n447
*1789 mult_66_G4_n446
*1790 mult_66_G4_n445
*1791 mult_66_G4_n444
*1792 mult_66_G4_n443
*1793 mult_66_G4_n442
*1794 mult_66_G4_n441
*1795 mult_66_G4_n440
*1796 mult_66_G4_n439
*1797 mult_66_G4_n438
*1798 mult_66_G4_n437
*1799 mult_66_G4_n436
*1800 mult_66_G4_n435
*1801 mult_66_G4_n434
*1802 mult_66_G4_n433
*1803 mult_66_G4_n432
*1804 mult_66_G4_n431
*1805 mult_66_G4_n430
*1806 mult_66_G4_n429
*1807 mult_66_G4_n428
*1808 mult_66_G4_n427
*1809 mult_66_G4_n426
*1810 mult_66_G4_n425
*1811 mult_66_G4_n424